@<TRIPOS>MOLECULE
*****
    3     2     1     0     0
SMALL
bcc


@<TRIPOS>ATOM
      1 O            1.0520    -0.0150    -0.0760 oh         1 HOH      -0.785000
      2 H            0.7730    -0.6850    -0.7180 ho         0 HOH       0.392000
      3 H1           2.0190    -0.0480    -0.1080 ho         0 HOH       0.392000
@<TRIPOS>BOND
     1     1     2 1   
     2     1     3 1   
@<TRIPOS>SUBSTRUCTURE
     1 HOH         1 TEMP              0 ****  ****    0 ROOT
