@<TRIPOS>MOLECULE
*****
 3 2 0 0 0
SMALL
GASTEIGER

@<TRIPOS>ATOM
      1 O           1.0515   -0.0145   -0.0763 O.3     1  HOH1       -0.4105
      2 H           0.7726   -0.6848   -0.7180 H       0  HOH0        0.2052
      3 H           2.0194   -0.0480   -0.1084 H       0  HOH0        0.2052
@<TRIPOS>BOND
     1     1     2    1
     2     1     3    1
